Version 4
SHEET 1 1000 1064
WIRE 720 -192 512 -192
WIRE 720 -128 720 -192
WIRE 512 -112 512 -192
WIRE 512 -112 480 -112
WIRE 544 -112 512 -112
WIRE 304 -96 208 -96
WIRE 368 -96 304 -96
WIRE 304 -80 304 -96
WIRE 512 -80 480 -80
WIRE 512 -32 512 -80
WIRE 624 -32 624 -112
WIRE 624 -32 512 -32
WIRE 928 -32 624 -32
WIRE 304 16 304 -16
WIRE 720 16 720 -48
WIRE 80 32 -112 32
WIRE 208 32 208 -96
WIRE 208 32 80 32
WIRE 720 80 512 80
WIRE 720 144 720 80
WIRE 512 160 512 80
WIRE 512 160 480 160
WIRE 544 160 512 160
WIRE 208 176 208 32
WIRE 304 176 208 176
WIRE 368 176 304 176
WIRE 512 192 480 192
WIRE -112 224 -112 32
WIRE 304 224 304 176
WIRE 512 256 512 192
WIRE 624 256 624 160
WIRE 624 256 512 256
WIRE 896 256 624 256
WIRE 304 336 304 288
WIRE 624 336 624 320
WIRE 720 336 720 224
WIRE -112 368 -112 304
WIRE -112 368 -304 368
WIRE 752 384 496 384
WIRE -112 416 -112 368
WIRE 752 432 752 384
WIRE 496 512 496 384
WIRE 496 512 448 512
WIRE 512 512 496 512
WIRE -304 528 -304 368
WIRE 240 528 128 528
WIRE 336 528 240 528
WIRE 496 544 448 544
WIRE 240 576 240 528
WIRE 496 576 496 544
WIRE 592 576 592 512
WIRE 592 576 496 576
WIRE 912 576 592 576
WIRE 944 576 912 576
WIRE -112 672 -112 496
WIRE 32 672 -112 672
WIRE 128 672 128 528
WIRE 128 672 32 672
WIRE 240 688 240 640
WIRE 592 688 592 640
WIRE 752 688 752 512
WIRE 704 736 480 736
WIRE 704 752 704 736
WIRE 480 784 480 736
WIRE 480 784 448 784
WIRE 496 784 480 784
WIRE 128 800 128 672
WIRE 224 800 128 800
WIRE 336 800 224 800
WIRE 496 816 448 816
WIRE 224 864 224 800
WIRE 496 880 496 816
WIRE 576 880 576 784
WIRE 576 880 496 880
WIRE 912 880 576 880
WIRE 576 912 576 880
WIRE 224 1024 224 928
WIRE 576 1024 576 976
WIRE 704 1024 704 832
FLAG 304 336 0
FLAG 720 336 0
FLAG 624 336 0
FLAG 720 16 0
FLAG 624 32 0
FLAG 304 16 0
FLAG 928 -32 VS
FLAG 912 880 MOD
FLAG 912 576 VEE
FLAG 896 256 VDD
FLAG -304 528 0
FLAG 240 688 0
FLAG 592 688 0
FLAG 752 688 0
FLAG 224 1024 0
FLAG 576 1024 0
FLAG 704 1024 0
FLAG 80 32 VIN+
FLAG 32 672 VIN-
SYMBOL voltage -112 208 R0
WINDOW 123 0 0 Left 0
WINDOW 39 0 0 Left 0
WINDOW 3 40 60 Left 2
SYMATTR Value 15V
SYMATTR InstName V1
SYMBOL AutoGenerated\\LM317_TI 416 176 R0
WINDOW 3 8 -98 Top 2
SYMATTR InstName U1
SYMBOL cap 288 224 R0
WINDOW 0 26 51 Left 2
WINDOW 3 23 76 Left 2
SYMATTR InstName C1
SYMATTR Value 0.1µ
SYMBOL res 736 240 R180
WINDOW 0 36 76 Left 2
WINDOW 3 36 40 Left 2
SYMATTR InstName R2
SYMATTR Value 1488
SYMBOL res 528 176 R270
WINDOW 0 32 56 VTop 2
WINDOW 3 0 56 VBottom 2
SYMATTR InstName R1
SYMATTR Value 240
SYMBOL cap 608 256 R0
WINDOW 0 30 47 Left 2
WINDOW 3 22 68 Left 2
SYMATTR InstName C2
SYMATTR Value 1µ
SYMBOL AutoGenerated\\LM317_TI 416 -96 R0
WINDOW 3 7 -94 Top 2
SYMATTR InstName U2
SYMBOL res 528 -96 R270
WINDOW 0 32 56 VTop 2
WINDOW 3 0 56 VBottom 2
SYMATTR InstName R3
SYMATTR Value 240
SYMBOL res 736 -32 R180
WINDOW 0 36 76 Left 2
WINDOW 3 36 40 Left 2
SYMATTR InstName R4
SYMATTR Value 720
SYMBOL cap 608 -32 R0
WINDOW 0 43 26 Left 2
WINDOW 3 29 45 Left 2
SYMATTR InstName C3
SYMATTR Value 1µ
SYMBOL cap 288 -80 R0
WINDOW 0 35 21 Left 2
WINDOW 3 31 47 Left 2
SYMATTR InstName C4
SYMATTR Value 0.1µ
SYMBOL AutoGenerated\\LM337_N_TRANS 384 800 R0
SYMATTR InstName U3
SYMBOL AutoGenerated\\LM337_N_TRANS 384 528 R0
WINDOW 3 -7 -98 Top 2
SYMATTR InstName U4
SYMBOL cap 208 864 R0
WINDOW 0 35 21 Left 2
WINDOW 3 31 47 Left 2
SYMATTR InstName C5
SYMATTR Value 1µ
SYMBOL res 608 496 R90
WINDOW 0 0 56 VBottom 2
WINDOW 3 32 56 VTop 2
SYMATTR InstName R5
SYMATTR Value 120
SYMBOL res 768 528 R180
WINDOW 0 36 76 Left 2
WINDOW 3 36 40 Left 2
SYMATTR InstName R6
SYMATTR Value 1032
SYMBOL cap 576 576 R0
SYMATTR InstName C7
SYMATTR Value 1µ
SYMBOL res 688 736 R0
WINDOW 0 -35 33 Left 2
WINDOW 3 -39 64 Left 2
SYMATTR InstName R7
SYMATTR Value 744
SYMBOL cap 224 576 R0
WINDOW 0 35 21 Left 2
WINDOW 3 31 47 Left 2
SYMATTR InstName C8
SYMATTR Value 1µ
SYMBOL res 592 768 R90
WINDOW 0 0 56 VBottom 2
WINDOW 3 32 56 VTop 2
SYMATTR InstName R8
SYMATTR Value 120
SYMBOL voltage -112 400 R0
WINDOW 123 0 0 Left 0
WINDOW 39 0 0 Left 0
WINDOW 3 40 60 Left 2
SYMATTR Value 15V
SYMATTR InstName V2
SYMBOL cap 560 912 R0
WINDOW 0 35 21 Left 2
WINDOW 3 31 47 Left 2
SYMATTR InstName C9
SYMATTR Value 1µ
TEXT -100 568 Left 2 !.tran 1
